LAMMPS (29 Sep 2021 - Update 2)
# LAMMPS input file
# Created using atb2lammps
# https://github.com/simongravelle/atb2lammps

boundary p p p
units real
atom_style      full
bond_style      harmonic
angle_style     harmonic
dihedral_style  harmonic
improper_style  harmonic
pair_style      lj/cut/coul/long 14
kspace_style    pppm 0.0001
special_bonds lj 0.0 0.0 0.5 coul 0.0 0.0 1.0 angle yes dihedral yes
read_data data.lammps
Reading data file ...
  orthogonal box = (-25.000000 -25.000000 -25.000000) to (25.000000 25.000000 25.000000)
  reading atoms ...
  3 atoms
  scanning bonds ...
  scanning angles ...
  reading bonds ...
  2 bonds
  reading angles ...
  1 angles
Finding 1-2 1-3 1-4 neighbors ...
     2 = max # of 1-2 neighbors
     1 = max # of 1-3 neighbors
     1 = max # of 1-4 neighbors
     2 = max # of special neighbors
include parm.lammps
# LAMMPS parameter file
# Created using atb2lammps
# https://github.com/simongravelle/atb2lammps

mass 1 15.9994
mass 2 12.011

pair_coeff 1 1 0.41229546 2.625854
pair_coeff 1 2 0.31783628 2.717064
pair_coeff 2 2 0.24501823 2.8114421

bond_coeff 1 1063.5756 1.17

angle_coeff 1 48.240032 180.0

minimize 1.0e-5 1.0e-7 1000 10000
PPPM initialization ...
  G vector (1/distance) = 0.11340687
  grid = 6 6 6
  stencil order = 5
  estimated absolute RMS force accuracy = 0.027954602
  estimated relative force accuracy = 8.4184455e-05
  3d grid and FFT values/proc = 1331 216
  update every 1 steps, delay 0 steps, check yes
Step Temp E_pair E_mol TotEng Press
0            0 -0.00024252844 0.0016315446 0.0013890161   0.79460047
Loop time of 0.00157798 on 1 procs for 15 steps with 3 atoms

Minimization stats:
  Stopping criterion = energy tolerance
  Energy initial, next-to-last, final =
  Force two-norm initial, final = 2.6284531 0.00060255149
  Force max component initial, final = 1.8629868 0.00042127559
  Final line search alpha, max atom move = 1.0000000 0.00042127559
  Iterations, force evaluations = 15 43

reset_timestep 0
fix mymom all momentum 100 linear 1 1 1 angular
fix mynvt all nvt temp 300 300 100
timestep 1.0
dump mydmp all atom 1000 dump.lammpstrj
thermo 1000
run 50000
PPPM initialization ...
  G vector (1/distance) = 0.11340687
  grid = 6 6 6
  stencil order = 5
  estimated absolute RMS force accuracy = 0.027954602
  estimated relative force accuracy = 8.4184455e-05
  3d grid and FFT values/proc = 1331 216
Step Temp E_pair E_mol TotEng Press
0            0 -0.00024324188 1.2417336e-07 -0.00024311771 6.1864189e-05
Averages over the last 26 of 51 rows, steps 25000 to 50000:
Temp E_pair E_mol TotEng Press
323.235 -0.000383491 1.59721 3.52383 -2.14409
Loop time of 0.429227 on 1 procs for 50000 steps with 3 atoms
